
Circuit: example lowpass

Doing analysis at TEMP = 27.000000 and TNOM = 27.000000

Warning: v1: no DC value, transient time 0 value used
No. of Data Columns : 4  

No. of Data Rows : 68

